Circuit: * C:\Users\ivank\Desktop\ETP_LTSpice_krajiiva\Design2.asc

Limiting rise time of source v2 to 9.2e-007
Limiting fall time of source v2 to 9.2e-007
WARNING: Node N003 is floating.

WARNING: Less than two connections to node N003.  This node is used by D7.
WARNING: Less than two connections to node NC_01.  This node is used by D2.
Direct Newton iteration for .op point succeeded.

Date: Tue Nov 12 22:07:12 2019
Total elapsed time: 51.492 seconds.

tnom = 27
temp = 27
method = modified trap
totiter = 2423377
traniter = 2423347
tranpoints = 953393
accept = 664380
rejected = 289013
matrix size = 40
fillins = 9
solver = Normal
Matrix Compiler1: 2.34 KB object code size  1.6/1.1/[0.7]
Matrix Compiler2: off  [0.9]/1.4/1.4

